test/data/enwl/networks/network_20/Feeder_1/Loads.dss
New Load.LOAD1 Phases=1 Bus1=53.1 kV=0.23 kW=1 PF=0.95
New Load.LOAD2 Phases=1 Bus1=54.2 kV=0.23 kW=1 PF=0.95
New Load.LOAD3 Phases=1 Bus1=55.3 kV=0.23 kW=1 PF=0.95
New Load.LOAD4 Phases=1 Bus1=56.1 kV=0.23 kW=1 PF=0.95
New Load.LOAD5 Phases=1 Bus1=57.2 kV=0.23 kW=1 PF=0.95
New Load.LOAD6 Phases=1 Bus1=58.3 kV=0.23 kW=1 PF=0.95
New Load.LOAD7 Phases=1 Bus1=59.1 kV=0.23 kW=1 PF=0.95
New Load.LOAD8 Phases=1 Bus1=60.2 kV=0.23 kW=1 PF=0.95
New Load.LOAD9 Phases=1 Bus1=61.3 kV=0.23 kW=1 PF=0.95
New Load.LOAD10 Phases=1 Bus1=62.1 kV=0.23 kW=1 PF=0.95
New Load.LOAD11 Phases=1 Bus1=63.2 kV=0.23 kW=1 PF=0.95
New Load.LOAD12 Phases=1 Bus1=64.3 kV=0.23 kW=1 PF=0.95
New Load.LOAD13 Phases=1 Bus1=65.1 kV=0.23 kW=1 PF=0.95
New Load.LOAD14 Phases=1 Bus1=66.2 kV=0.23 kW=1 PF=0.95
New Load.LOAD15 Phases=1 Bus1=67.3 kV=0.23 kW=1 PF=0.95
New Load.LOAD16 Phases=1 Bus1=68.1 kV=0.23 kW=1 PF=0.95
New Load.LOAD17 Phases=1 Bus1=69.2 kV=0.23 kW=1 PF=0.95
New Load.LOAD18 Phases=1 Bus1=70.3 kV=0.23 kW=1 PF=0.95
New Load.LOAD19 Phases=1 Bus1=71.1 kV=0.23 kW=1 PF=0.95
New Load.LOAD20 Phases=1 Bus1=72.2 kV=0.23 kW=1 PF=0.95
New Load.LOAD21 Phases=1 Bus1=73.3 kV=0.23 kW=1 PF=0.95
New Load.LOAD22 Phases=1 Bus1=74.1 kV=0.23 kW=1 PF=0.95
New Load.LOAD23 Phases=1 Bus1=75.2 kV=0.23 kW=1 PF=0.95
New Load.LOAD24 Phases=1 Bus1=76.3 kV=0.23 kW=1 PF=0.95
New Load.LOAD25 Phases=1 Bus1=77.1 kV=0.23 kW=1 PF=0.95